Circuit: * C:\Users\Marcelo\Documents\GitHub\TP2_Electro1\Amplif.asc

Direct Newton iteration for .op point succeeded.

Date: Wed Nov 14 18:54:38 2018
Total elapsed time: 0.063 seconds.

tnom = 27
temp = 27
method = modified trap
totiter = 414
traniter = 378
tranpoints = 129
accept = 91
rejected = 38
matrix size = 63
fillins = 24
solver = Normal
Matrix Compiler1: 4.76 KB object code size  1.1/0.6/[0.3]
Matrix Compiler2: off  [0.5]/0.9/0.5

