Circuit: * C:\Users\joa-m\TP2_Electro1\Amplif.asc

Instance "m:m4:1": Width narrower than recommended for a level 3 MOSFET.
Instance "m:m3:1": Width narrower than recommended for a level 3 MOSFET.
Instance "m:m2:1": Width narrower than recommended for a level 3 MOSFET.
Instance "m:m1:1": Width narrower than recommended for a level 3 MOSFET.
Direct Newton iteration failed to find .op point.  (Use ".option noopiter" to skip.)
Starting Gmin stepping
Gmin = 10
Gmin = 1.07374
Gmin = 0.115292
Gmin = 0.0123794
Gmin = 0.00132923
Gmin = 0.000142725
Gmin = 1.5325e-005
Gmin = 1.6455e-006
Gmin = 1.76685e-007
Gmin = 1.89714e-008
Gmin = 2.03704e-009
vernier = 0.5
vernier = 0.25
Gmin = 1.32529e-009
vernier = 0.333333
vernier = 0.166667
Gmin = 7.85503e-010
vernier = 0.222222
vernier = 0.296296
Gmin = 4.67779e-010
vernier = 0.395061
Gmin = 2.04336e-010
vernier = 0.526748
vernier = 0.702331
Gmin = 5.44907e-011
vernier = 0.936441
vernier = 0.46822
Gmin = 1.17164e-011
vernier = 0.624294
Gmin = 3.26207e-012
vernier = 0.832392
vernier = 0.416196
Gmin = 1.07708e-012
vernier = 0.554928
vernier = 0.739903
Gmin = 2.68907e-013
vernier = 0.986537
Gmin = 0
Gmin stepping succeeded in finding the operating point.


Date: Sun Nov 04 17:27:13 2018
Total elapsed time: 0.437 seconds.

tnom = 27
temp = 27
method = modified trap
totiter = 9520
traniter = 8249
tranpoints = 1734
accept = 1539
rejected = 195
matrix size = 156
fillins = 83
solver = Normal
Thread vector: 11.3/8.7[2] 4.0/3.6[2] 4.6/5.5[1] 0.8/2.3[1]  2592/500
Matrix Compiler1: 11.58 KB object code size  3.1/1.6/[0.8]
Matrix Compiler2: 12.56 KB object code size  2.2/3.7/[1.7]

