Circuit: * C:\Users\Marcelo\Documents\GitHub\TP2_Electro1\Cascode Simulacion\Cascode.asc

