Circuit: * C:\Users\Marcelo\Documents\GitHub\TP2_Electro1\Simulacion\Amplif.asc

Direct Newton iteration for .op point succeeded.

Date: Sun Nov 18 19:35:54 2018
Total elapsed time: 1.305 seconds.

tnom = 27
temp = 27
method = modified trap
totiter = 60079
traniter = 60043
tranpoints = 30018
accept = 30018
rejected = 0
matrix size = 61
fillins = 24
solver = Normal
Matrix Compiler1: 4.72 KB object code size  1.0/0.6/[0.3]
Matrix Compiler2: 5.30 KB object code size  0.5/0.8/[0.3]

