Circuit: * C:\Users\Marcelo\Documents\GitHub\TP2_Electro1\Amplif.asc

Direct Newton iteration for .op point succeeded.

Date: Fri Nov 16 18:17:48 2018
Total elapsed time: 0.079 seconds.

tnom = 27
temp = 27
method = modified trap
totiter = 414
traniter = 378
tranpoints = 129
accept = 91
rejected = 38
matrix size = 63
fillins = 24
solver = Normal
Matrix Compiler1: 4.76 KB object code size  0.8/0.4/[0.3]
Matrix Compiler2: 5.42 KB object code size  0.3/0.7/[0.3]

