Circuit: * C:\Users\Marcelo\Documents\GitHub\TP2_Electro1\Simulacion\Amplif.asc

Direct Newton iteration for .op point succeeded.

Date: Tue Nov 20 17:30:53 2018
Total elapsed time: 0.047 seconds.

tnom = 27
temp = 27
method = modified trap
totiter = 1198
traniter = 1162
tranpoints = 382
accept = 241
rejected = 141
matrix size = 63
fillins = 24
solver = Normal
Matrix Compiler1: 4.76 KB object code size  1.6/0.5/[0.3]
Matrix Compiler2: off  [0.4]/0.8/1.0

