Circuit: * C:\Users\joa-m\TP2_Electro1\Simulacion\Amplif.asc

Direct Newton iteration for .op point succeeded.

Date: Fri Nov 16 19:31:03 2018
Total elapsed time: 0.069 seconds.

tnom = 27
temp = 27
method = modified trap
totiter = 413
traniter = 377
tranpoints = 129
accept = 91
rejected = 38
matrix size = 63
fillins = 24
solver = Normal
Matrix Compiler1: 4.76 KB object code size  1.0/0.5/[0.3]
Matrix Compiler2: 5.42 KB object code size  0.4/1.0/[0.4]

