Circuit: * C:\Users\Marcelo\Documents\GitHub\TP2_Electro1\Simulacion\Amplif.asc

Direct Newton iteration for .op point succeeded.

Date: Sun Nov 18 19:26:55 2018
Total elapsed time: 0.078 seconds.

tnom = 27
temp = 27
method = trap
totiter = 36
traniter = 0
tranpoints = 0
accept = 0
rejected = 0
matrix size = 63
fillins = 24
solver = Normal
Matrix Compiler1:     276 opcodes
Matrix Compiler2:     437 opcodes
